
---------- Begin Simulation Statistics ----------
simSeconds                                   6.427869                       # Number of seconds simulated (Second)
simTicks                                 6427869153501                       # Number of ticks simulated (Tick)
finalTick                                6427869153501                       # Number of ticks from beginning of simulation (restored from checkpoints and never reset) (Tick)
simFreq                                  1000000000000                       # The number of ticks per simulated second ((Tick/Second))
hostSeconds                                  17587.81                       # Real time elapsed on the host (Second)
hostTickRate                                365472927                       # The number of ticks simulated per host second (ticks/s) ((Tick/Second))
hostMemory                                   18057232                       # Number of bytes of host memory used (Byte)
simInsts                                   3328094291                       # Number of instructions simulated (Count)
simOps                                     7534801026                       # Number of ops (including micro ops) simulated (Count)
hostInstRate                                   189227                       # Simulator instruction rate (inst/s) ((Count/Second))
hostOpRate                                     428410                       # Simulator op (including micro ops) rate (op/s) ((Count/Second))
system.clk_domain.clock                          1000                       # Clock period in ticks (Tick)
system.cpu0.numCycles                     12854152111                       # Number of cpu cycles simulated (Cycle)
system.cpu0.numWorkItemsStarted                     0                       # Number of work items this cpu started (Count)
system.cpu0.numWorkItemsCompleted                   0                       # Number of work items this cpu completed (Count)
system.cpu0.exec_context.thread_0.numInsts   1221176941                       # Number of instructions committed (Count)
system.cpu0.exec_context.thread_0.numOps   2730080081                       # Number of ops (including micro ops) committed (Count)
system.cpu0.exec_context.thread_0.numIntAluAccesses   2467820079                       # Number of integer alu accesses (Count)
system.cpu0.exec_context.thread_0.numFpAluAccesses      8897349                       # Number of float alu accesses (Count)
system.cpu0.exec_context.thread_0.numVecAluAccesses            0                       # Number of vector alu accesses (Count)
system.cpu0.exec_context.thread_0.numCallsReturns     25447240                       # Number of times a function call or return occured (Count)
system.cpu0.exec_context.thread_0.numCondCtrlInsts    327785571                       # Number of instructions that are conditional controls (Count)
system.cpu0.exec_context.thread_0.numIntInsts   2467820079                       # Number of integer instructions (Count)
system.cpu0.exec_context.thread_0.numFpInsts      8897349                       # Number of float instructions (Count)
system.cpu0.exec_context.thread_0.numVecInsts            0                       # Number of vector instructions (Count)
system.cpu0.exec_context.thread_0.numIntRegReads   3299301176                       # Number of times the integer registers were read (Count)
system.cpu0.exec_context.thread_0.numIntRegWrites   1817289190                       # Number of times the integer registers were written (Count)
system.cpu0.exec_context.thread_0.numFpRegReads     13812986                       # Number of times the floating registers were read (Count)
system.cpu0.exec_context.thread_0.numFpRegWrites      6595305                       # Number of times the floating registers were written (Count)
system.cpu0.exec_context.thread_0.numVecRegReads            0                       # Number of times the vector registers were read (Count)
system.cpu0.exec_context.thread_0.numVecRegWrites            0                       # Number of times the vector registers were written (Count)
system.cpu0.exec_context.thread_0.numVecPredRegReads            0                       # Number of times the predicate registers were read (Count)
system.cpu0.exec_context.thread_0.numVecPredRegWrites            0                       # Number of times the predicate registers were written (Count)
system.cpu0.exec_context.thread_0.numCCRegReads   1915227162                       # Number of times the CC registers were read (Count)
system.cpu0.exec_context.thread_0.numCCRegWrites   1064016317                       # Number of times the CC registers were written (Count)
system.cpu0.exec_context.thread_0.numMiscRegReads   1046534124                       # Number of times the Misc registers were read (Count)
system.cpu0.exec_context.thread_0.numMiscRegWrites      1212362                       # Number of times the Misc registers were written (Count)
system.cpu0.exec_context.thread_0.numMemRefs    406655561                       # Number of memory refs (Count)
system.cpu0.exec_context.thread_0.numLoadInsts    200637730                       # Number of load instructions (Count)
system.cpu0.exec_context.thread_0.numStoreInsts    206017831                       # Number of store instructions (Count)
system.cpu0.exec_context.thread_0.numIdleCycles 8034747322.163954                       # Number of idle cycles (Cycle)
system.cpu0.exec_context.thread_0.numBusyCycles 4819404788.836047                       # Number of busy cycles (Cycle)
system.cpu0.exec_context.thread_0.notIdleFraction     0.374930                       # Percentage of non-idle cycles (Ratio)
system.cpu0.exec_context.thread_0.idleFraction     0.625070                       # Percentage of idle cycles (Ratio)
system.cpu0.exec_context.thread_0.numBranches    397141985                       # Number of branches fetched (Count)
system.cpu0.exec_context.thread_0.statExecutedInstType::No_OpClass      2036516      0.07%      0.07% # Class of executed instruction. (Count)
system.cpu0.exec_context.thread_0.statExecutedInstType::IntAlu   2302954226     84.35%     84.43% # Class of executed instruction. (Count)
system.cpu0.exec_context.thread_0.statExecutedInstType::IntMult      7004350      0.26%     84.69% # Class of executed instruction. (Count)
system.cpu0.exec_context.thread_0.statExecutedInstType::IntDiv      5787821      0.21%     84.90% # Class of executed instruction. (Count)
system.cpu0.exec_context.thread_0.statExecutedInstType::FloatAdd       122879      0.00%     84.90% # Class of executed instruction. (Count)
system.cpu0.exec_context.thread_0.statExecutedInstType::FloatCmp            0      0.00%     84.90% # Class of executed instruction. (Count)
system.cpu0.exec_context.thread_0.statExecutedInstType::FloatCvt         8464      0.00%     84.90% # Class of executed instruction. (Count)
system.cpu0.exec_context.thread_0.statExecutedInstType::FloatMult            0      0.00%     84.90% # Class of executed instruction. (Count)
system.cpu0.exec_context.thread_0.statExecutedInstType::FloatMultAcc            0      0.00%     84.90% # Class of executed instruction. (Count)
system.cpu0.exec_context.thread_0.statExecutedInstType::FloatDiv            0      0.00%     84.90% # Class of executed instruction. (Count)
system.cpu0.exec_context.thread_0.statExecutedInstType::FloatMisc            0      0.00%     84.90% # Class of executed instruction. (Count)
system.cpu0.exec_context.thread_0.statExecutedInstType::FloatSqrt            0      0.00%     84.90% # Class of executed instruction. (Count)
system.cpu0.exec_context.thread_0.statExecutedInstType::SimdAdd       216238      0.01%     84.91% # Class of executed instruction. (Count)
system.cpu0.exec_context.thread_0.statExecutedInstType::SimdAddAcc            0      0.00%     84.91% # Class of executed instruction. (Count)
system.cpu0.exec_context.thread_0.statExecutedInstType::SimdAlu      1559901      0.06%     84.97% # Class of executed instruction. (Count)
system.cpu0.exec_context.thread_0.statExecutedInstType::SimdCmp        68596      0.00%     84.97% # Class of executed instruction. (Count)
system.cpu0.exec_context.thread_0.statExecutedInstType::SimdCvt      1682764      0.06%     85.03% # Class of executed instruction. (Count)
system.cpu0.exec_context.thread_0.statExecutedInstType::SimdMisc      1886064      0.07%     85.10% # Class of executed instruction. (Count)
system.cpu0.exec_context.thread_0.statExecutedInstType::SimdMult            0      0.00%     85.10% # Class of executed instruction. (Count)
system.cpu0.exec_context.thread_0.statExecutedInstType::SimdMultAcc            0      0.00%     85.10% # Class of executed instruction. (Count)
system.cpu0.exec_context.thread_0.statExecutedInstType::SimdShift       109454      0.00%     85.10% # Class of executed instruction. (Count)
system.cpu0.exec_context.thread_0.statExecutedInstType::SimdShiftAcc            0      0.00%     85.10% # Class of executed instruction. (Count)
system.cpu0.exec_context.thread_0.statExecutedInstType::SimdDiv            0      0.00%     85.10% # Class of executed instruction. (Count)
system.cpu0.exec_context.thread_0.statExecutedInstType::SimdSqrt            0      0.00%     85.10% # Class of executed instruction. (Count)
system.cpu0.exec_context.thread_0.statExecutedInstType::SimdFloatAdd            0      0.00%     85.10% # Class of executed instruction. (Count)
system.cpu0.exec_context.thread_0.statExecutedInstType::SimdFloatAlu            0      0.00%     85.10% # Class of executed instruction. (Count)
system.cpu0.exec_context.thread_0.statExecutedInstType::SimdFloatCmp            0      0.00%     85.10% # Class of executed instruction. (Count)
system.cpu0.exec_context.thread_0.statExecutedInstType::SimdFloatCvt            0      0.00%     85.10% # Class of executed instruction. (Count)
system.cpu0.exec_context.thread_0.statExecutedInstType::SimdFloatDiv            0      0.00%     85.10% # Class of executed instruction. (Count)
system.cpu0.exec_context.thread_0.statExecutedInstType::SimdFloatMisc            0      0.00%     85.10% # Class of executed instruction. (Count)
system.cpu0.exec_context.thread_0.statExecutedInstType::SimdFloatMult            0      0.00%     85.10% # Class of executed instruction. (Count)
system.cpu0.exec_context.thread_0.statExecutedInstType::SimdFloatMultAcc            0      0.00%     85.10% # Class of executed instruction. (Count)
system.cpu0.exec_context.thread_0.statExecutedInstType::SimdFloatSqrt            0      0.00%     85.10% # Class of executed instruction. (Count)
system.cpu0.exec_context.thread_0.statExecutedInstType::SimdReduceAdd            0      0.00%     85.10% # Class of executed instruction. (Count)
system.cpu0.exec_context.thread_0.statExecutedInstType::SimdReduceAlu            0      0.00%     85.10% # Class of executed instruction. (Count)
system.cpu0.exec_context.thread_0.statExecutedInstType::SimdReduceCmp            0      0.00%     85.10% # Class of executed instruction. (Count)
system.cpu0.exec_context.thread_0.statExecutedInstType::SimdFloatReduceAdd            0      0.00%     85.10% # Class of executed instruction. (Count)
system.cpu0.exec_context.thread_0.statExecutedInstType::SimdFloatReduceCmp            0      0.00%     85.10% # Class of executed instruction. (Count)
system.cpu0.exec_context.thread_0.statExecutedInstType::SimdAes            0      0.00%     85.10% # Class of executed instruction. (Count)
system.cpu0.exec_context.thread_0.statExecutedInstType::SimdAesMix            0      0.00%     85.10% # Class of executed instruction. (Count)
system.cpu0.exec_context.thread_0.statExecutedInstType::SimdSha1Hash            0      0.00%     85.10% # Class of executed instruction. (Count)
system.cpu0.exec_context.thread_0.statExecutedInstType::SimdSha1Hash2            0      0.00%     85.10% # Class of executed instruction. (Count)
system.cpu0.exec_context.thread_0.statExecutedInstType::SimdSha256Hash            0      0.00%     85.10% # Class of executed instruction. (Count)
system.cpu0.exec_context.thread_0.statExecutedInstType::SimdSha256Hash2            0      0.00%     85.10% # Class of executed instruction. (Count)
system.cpu0.exec_context.thread_0.statExecutedInstType::SimdShaSigma2            0      0.00%     85.10% # Class of executed instruction. (Count)
system.cpu0.exec_context.thread_0.statExecutedInstType::SimdShaSigma3            0      0.00%     85.10% # Class of executed instruction. (Count)
system.cpu0.exec_context.thread_0.statExecutedInstType::SimdPredAlu            0      0.00%     85.10% # Class of executed instruction. (Count)
system.cpu0.exec_context.thread_0.statExecutedInstType::MemRead    198886745      7.28%     92.39% # Class of executed instruction. (Count)
system.cpu0.exec_context.thread_0.statExecutedInstType::MemWrite    204906735      7.51%     99.90% # Class of executed instruction. (Count)
system.cpu0.exec_context.thread_0.statExecutedInstType::FloatMemRead      1750985      0.06%     99.96% # Class of executed instruction. (Count)
system.cpu0.exec_context.thread_0.statExecutedInstType::FloatMemWrite      1111096      0.04%    100.00% # Class of executed instruction. (Count)
system.cpu0.exec_context.thread_0.statExecutedInstType::IprAccess            0      0.00%    100.00% # Class of executed instruction. (Count)
system.cpu0.exec_context.thread_0.statExecutedInstType::InstPrefetch            0      0.00%    100.00% # Class of executed instruction. (Count)
system.cpu0.exec_context.thread_0.statExecutedInstType::total   2730092834                       # Class of executed instruction. (Count)
system.cpu0.interrupts.clk_domain.clock          8000                       # Clock period in ticks (Tick)
system.cpu0.mmu.dtb.rdAccesses              201573426                       # TLB accesses on read requests (Count)
system.cpu0.mmu.dtb.wrAccesses              206356831                       # TLB accesses on write requests (Count)
system.cpu0.mmu.dtb.rdMisses                   650378                       # TLB misses on read requests (Count)
system.cpu0.mmu.dtb.wrMisses                    69479                       # TLB misses on write requests (Count)
system.cpu0.mmu.dtb.walker.power_state.pwrStateResidencyTicks::UNDEFINED 6427869153501                       # Cumulative time (in ticks) in various power states (Tick)
system.cpu0.mmu.itb.rdAccesses                      0                       # TLB accesses on read requests (Count)
system.cpu0.mmu.itb.wrAccesses             1561618230                       # TLB accesses on write requests (Count)
system.cpu0.mmu.itb.rdMisses                        0                       # TLB misses on read requests (Count)
system.cpu0.mmu.itb.wrMisses                   287907                       # TLB misses on write requests (Count)
system.cpu0.mmu.itb.walker.power_state.pwrStateResidencyTicks::UNDEFINED 6427869153501                       # Cumulative time (in ticks) in various power states (Tick)
system.cpu0.power_state.numTransitions           9057                       # Number of power state transitions (Count)
system.cpu0.power_state.ticksClkGated::samples         4529                       # Distribution of time spent in the clock gated state (Tick)
system.cpu0.power_state.ticksClkGated::mean 887142725.325900                       # Distribution of time spent in the clock gated state (Tick)
system.cpu0.power_state.ticksClkGated::stdev 290599798.564354                       # Distribution of time spent in the clock gated state (Tick)
system.cpu0.power_state.ticksClkGated::1000-5e+10         4529    100.00%    100.00% # Distribution of time spent in the clock gated state (Tick)
system.cpu0.power_state.ticksClkGated::min_value       351000                       # Distribution of time spent in the clock gated state (Tick)
system.cpu0.power_state.ticksClkGated::max_value    995568500                       # Distribution of time spent in the clock gated state (Tick)
system.cpu0.power_state.ticksClkGated::total         4529                       # Distribution of time spent in the clock gated state (Tick)
system.cpu0.power_state.pwrStateResidencyTicks::ON 2409999750500                       # Cumulative time (in ticks) in various power states (Tick)
system.cpu0.power_state.pwrStateResidencyTicks::CLK_GATED 4017869403001                       # Cumulative time (in ticks) in various power states (Tick)
system.cpu0.thread_0.numInsts                       0                       # Number of Instructions committed (Count)
system.cpu0.thread_0.numOps                         0                       # Number of Ops committed (Count)
system.cpu0.thread_0.numMemRefs                     0                       # Number of Memory References (Count)
system.cpu1.numCycles                     12854994945                       # Number of cpu cycles simulated (Cycle)
system.cpu1.numWorkItemsStarted                     0                       # Number of work items this cpu started (Count)
system.cpu1.numWorkItemsCompleted                   0                       # Number of work items this cpu completed (Count)
system.cpu1.exec_context.thread_0.numInsts     49623819                       # Number of instructions committed (Count)
system.cpu1.exec_context.thread_0.numOps    438754647                       # Number of ops (including micro ops) committed (Count)
system.cpu1.exec_context.thread_0.numIntAluAccesses    379237701                       # Number of integer alu accesses (Count)
system.cpu1.exec_context.thread_0.numFpAluAccesses       330076                       # Number of float alu accesses (Count)
system.cpu1.exec_context.thread_0.numVecAluAccesses            0                       # Number of vector alu accesses (Count)
system.cpu1.exec_context.thread_0.numCallsReturns      2772382                       # Number of times a function call or return occured (Count)
system.cpu1.exec_context.thread_0.numCondCtrlInsts     63239789                       # Number of instructions that are conditional controls (Count)
system.cpu1.exec_context.thread_0.numIntInsts    379237701                       # Number of integer instructions (Count)
system.cpu1.exec_context.thread_0.numFpInsts       330076                       # Number of float instructions (Count)
system.cpu1.exec_context.thread_0.numVecInsts            0                       # Number of vector instructions (Count)
system.cpu1.exec_context.thread_0.numIntRegReads    632439590                       # Number of times the integer registers were read (Count)
system.cpu1.exec_context.thread_0.numIntRegWrites    298024445                       # Number of times the integer registers were written (Count)
system.cpu1.exec_context.thread_0.numFpRegReads       529613                       # Number of times the floating registers were read (Count)
system.cpu1.exec_context.thread_0.numFpRegWrites       264434                       # Number of times the floating registers were written (Count)
system.cpu1.exec_context.thread_0.numVecRegReads            0                       # Number of times the vector registers were read (Count)
system.cpu1.exec_context.thread_0.numVecRegWrites            0                       # Number of times the vector registers were written (Count)
system.cpu1.exec_context.thread_0.numVecPredRegReads            0                       # Number of times the predicate registers were read (Count)
system.cpu1.exec_context.thread_0.numVecPredRegWrites            0                       # Number of times the predicate registers were written (Count)
system.cpu1.exec_context.thread_0.numCCRegReads    333326109                       # Number of times the CC registers were read (Count)
system.cpu1.exec_context.thread_0.numCCRegWrites     87088493                       # Number of times the CC registers were written (Count)
system.cpu1.exec_context.thread_0.numMiscRegReads    156437492                       # Number of times the Misc registers were read (Count)
system.cpu1.exec_context.thread_0.numMiscRegWrites       495577                       # Number of times the Misc registers were written (Count)
system.cpu1.exec_context.thread_0.numMemRefs    132637001                       # Number of memory refs (Count)
system.cpu1.exec_context.thread_0.numLoadInsts     69230713                       # Number of load instructions (Count)
system.cpu1.exec_context.thread_0.numStoreInsts     63406288                       # Number of store instructions (Count)
system.cpu1.exec_context.thread_0.numIdleCycles 12012803385.095119                       # Number of idle cycles (Cycle)
system.cpu1.exec_context.thread_0.numBusyCycles 842191559.904880                       # Number of busy cycles (Cycle)
system.cpu1.exec_context.thread_0.notIdleFraction     0.065515                       # Percentage of non-idle cycles (Ratio)
system.cpu1.exec_context.thread_0.idleFraction     0.934485                       # Percentage of idle cycles (Ratio)
system.cpu1.exec_context.thread_0.numBranches     67672160                       # Number of branches fetched (Count)
system.cpu1.exec_context.thread_0.statExecutedInstType::No_OpClass       121771      0.03%      0.03% # Class of executed instruction. (Count)
system.cpu1.exec_context.thread_0.statExecutedInstType::IntAlu    305404001     69.61%     69.63% # Class of executed instruction. (Count)
system.cpu1.exec_context.thread_0.statExecutedInstType::IntMult       177179      0.04%     69.68% # Class of executed instruction. (Count)
system.cpu1.exec_context.thread_0.statExecutedInstType::IntDiv       188202      0.04%     69.72% # Class of executed instruction. (Count)
system.cpu1.exec_context.thread_0.statExecutedInstType::FloatAdd         7147      0.00%     69.72% # Class of executed instruction. (Count)
system.cpu1.exec_context.thread_0.statExecutedInstType::FloatCmp            0      0.00%     69.72% # Class of executed instruction. (Count)
system.cpu1.exec_context.thread_0.statExecutedInstType::FloatCvt         1136      0.00%     69.72% # Class of executed instruction. (Count)
system.cpu1.exec_context.thread_0.statExecutedInstType::FloatMult            0      0.00%     69.72% # Class of executed instruction. (Count)
system.cpu1.exec_context.thread_0.statExecutedInstType::FloatMultAcc            0      0.00%     69.72% # Class of executed instruction. (Count)
system.cpu1.exec_context.thread_0.statExecutedInstType::FloatDiv            0      0.00%     69.72% # Class of executed instruction. (Count)
system.cpu1.exec_context.thread_0.statExecutedInstType::FloatMisc            0      0.00%     69.72% # Class of executed instruction. (Count)
system.cpu1.exec_context.thread_0.statExecutedInstType::FloatSqrt            0      0.00%     69.72% # Class of executed instruction. (Count)
system.cpu1.exec_context.thread_0.statExecutedInstType::SimdAdd        15874      0.00%     69.72% # Class of executed instruction. (Count)
system.cpu1.exec_context.thread_0.statExecutedInstType::SimdAddAcc            0      0.00%     69.72% # Class of executed instruction. (Count)
system.cpu1.exec_context.thread_0.statExecutedInstType::SimdAlu        72949      0.02%     69.74% # Class of executed instruction. (Count)
system.cpu1.exec_context.thread_0.statExecutedInstType::SimdCmp          744      0.00%     69.74% # Class of executed instruction. (Count)
system.cpu1.exec_context.thread_0.statExecutedInstType::SimdCvt        57848      0.01%     69.75% # Class of executed instruction. (Count)
system.cpu1.exec_context.thread_0.statExecutedInstType::SimdMisc        61679      0.01%     69.77% # Class of executed instruction. (Count)
system.cpu1.exec_context.thread_0.statExecutedInstType::SimdMult            0      0.00%     69.77% # Class of executed instruction. (Count)
system.cpu1.exec_context.thread_0.statExecutedInstType::SimdMultAcc            0      0.00%     69.77% # Class of executed instruction. (Count)
system.cpu1.exec_context.thread_0.statExecutedInstType::SimdShift         9634      0.00%     69.77% # Class of executed instruction. (Count)
system.cpu1.exec_context.thread_0.statExecutedInstType::SimdShiftAcc            0      0.00%     69.77% # Class of executed instruction. (Count)
system.cpu1.exec_context.thread_0.statExecutedInstType::SimdDiv            0      0.00%     69.77% # Class of executed instruction. (Count)
system.cpu1.exec_context.thread_0.statExecutedInstType::SimdSqrt            0      0.00%     69.77% # Class of executed instruction. (Count)
system.cpu1.exec_context.thread_0.statExecutedInstType::SimdFloatAdd            0      0.00%     69.77% # Class of executed instruction. (Count)
system.cpu1.exec_context.thread_0.statExecutedInstType::SimdFloatAlu            0      0.00%     69.77% # Class of executed instruction. (Count)
system.cpu1.exec_context.thread_0.statExecutedInstType::SimdFloatCmp            0      0.00%     69.77% # Class of executed instruction. (Count)
system.cpu1.exec_context.thread_0.statExecutedInstType::SimdFloatCvt            0      0.00%     69.77% # Class of executed instruction. (Count)
system.cpu1.exec_context.thread_0.statExecutedInstType::SimdFloatDiv            0      0.00%     69.77% # Class of executed instruction. (Count)
system.cpu1.exec_context.thread_0.statExecutedInstType::SimdFloatMisc            0      0.00%     69.77% # Class of executed instruction. (Count)
system.cpu1.exec_context.thread_0.statExecutedInstType::SimdFloatMult            0      0.00%     69.77% # Class of executed instruction. (Count)
system.cpu1.exec_context.thread_0.statExecutedInstType::SimdFloatMultAcc            0      0.00%     69.77% # Class of executed instruction. (Count)
system.cpu1.exec_context.thread_0.statExecutedInstType::SimdFloatSqrt            0      0.00%     69.77% # Class of executed instruction. (Count)
system.cpu1.exec_context.thread_0.statExecutedInstType::SimdReduceAdd            0      0.00%     69.77% # Class of executed instruction. (Count)
system.cpu1.exec_context.thread_0.statExecutedInstType::SimdReduceAlu            0      0.00%     69.77% # Class of executed instruction. (Count)
system.cpu1.exec_context.thread_0.statExecutedInstType::SimdReduceCmp            0      0.00%     69.77% # Class of executed instruction. (Count)
system.cpu1.exec_context.thread_0.statExecutedInstType::SimdFloatReduceAdd            0      0.00%     69.77% # Class of executed instruction. (Count)
system.cpu1.exec_context.thread_0.statExecutedInstType::SimdFloatReduceCmp            0      0.00%     69.77% # Class of executed instruction. (Count)
system.cpu1.exec_context.thread_0.statExecutedInstType::SimdAes            0      0.00%     69.77% # Class of executed instruction. (Count)
system.cpu1.exec_context.thread_0.statExecutedInstType::SimdAesMix            0      0.00%     69.77% # Class of executed instruction. (Count)
system.cpu1.exec_context.thread_0.statExecutedInstType::SimdSha1Hash            0      0.00%     69.77% # Class of executed instruction. (Count)
system.cpu1.exec_context.thread_0.statExecutedInstType::SimdSha1Hash2            0      0.00%     69.77% # Class of executed instruction. (Count)
system.cpu1.exec_context.thread_0.statExecutedInstType::SimdSha256Hash            0      0.00%     69.77% # Class of executed instruction. (Count)
system.cpu1.exec_context.thread_0.statExecutedInstType::SimdSha256Hash2            0      0.00%     69.77% # Class of executed instruction. (Count)
system.cpu1.exec_context.thread_0.statExecutedInstType::SimdShaSigma2            0      0.00%     69.77% # Class of executed instruction. (Count)
system.cpu1.exec_context.thread_0.statExecutedInstType::SimdShaSigma3            0      0.00%     69.77% # Class of executed instruction. (Count)
system.cpu1.exec_context.thread_0.statExecutedInstType::SimdPredAlu            0      0.00%     69.77% # Class of executed instruction. (Count)
system.cpu1.exec_context.thread_0.statExecutedInstType::MemRead     69166524     15.76%     85.53% # Class of executed instruction. (Count)
system.cpu1.exec_context.thread_0.statExecutedInstType::MemWrite     63379886     14.45%     99.98% # Class of executed instruction. (Count)
system.cpu1.exec_context.thread_0.statExecutedInstType::FloatMemRead        64189      0.01%     99.99% # Class of executed instruction. (Count)
system.cpu1.exec_context.thread_0.statExecutedInstType::FloatMemWrite        26402      0.01%    100.00% # Class of executed instruction. (Count)
system.cpu1.exec_context.thread_0.statExecutedInstType::IprAccess            0      0.00%    100.00% # Class of executed instruction. (Count)
system.cpu1.exec_context.thread_0.statExecutedInstType::InstPrefetch            0      0.00%    100.00% # Class of executed instruction. (Count)
system.cpu1.exec_context.thread_0.statExecutedInstType::total    438755165                       # Class of executed instruction. (Count)
system.cpu1.interrupts.clk_domain.clock          8000                       # Clock period in ticks (Tick)
system.cpu1.mmu.dtb.rdAccesses               69268629                       # TLB accesses on read requests (Count)
system.cpu1.mmu.dtb.wrAccesses               63401344                       # TLB accesses on write requests (Count)
system.cpu1.mmu.dtb.rdMisses                    44185                       # TLB misses on read requests (Count)
system.cpu1.mmu.dtb.wrMisses                     4932                       # TLB misses on write requests (Count)
system.cpu1.mmu.dtb.walker.power_state.pwrStateResidencyTicks::UNDEFINED 6427869153501                       # Cumulative time (in ticks) in various power states (Tick)
system.cpu1.mmu.itb.rdAccesses                      0                       # TLB accesses on read requests (Count)
system.cpu1.mmu.itb.wrAccesses               64642721                       # TLB accesses on write requests (Count)
system.cpu1.mmu.itb.rdMisses                        0                       # TLB misses on read requests (Count)
system.cpu1.mmu.itb.wrMisses                    16747                       # TLB misses on write requests (Count)
system.cpu1.mmu.itb.walker.power_state.pwrStateResidencyTicks::UNDEFINED 6427869153501                       # Cumulative time (in ticks) in various power states (Tick)
system.cpu1.power_state.numTransitions          13184                       # Number of power state transitions (Count)
system.cpu1.power_state.ticksClkGated::samples         6593                       # Distribution of time spent in the clock gated state (Tick)
system.cpu1.power_state.ticksClkGated::mean 738515889.650690                       # Distribution of time spent in the clock gated state (Tick)
system.cpu1.power_state.ticksClkGated::stdev 614861435.177577                       # Distribution of time spent in the clock gated state (Tick)
system.cpu1.power_state.ticksClkGated::1000-5e+10         6593    100.00%    100.00% # Distribution of time spent in the clock gated state (Tick)
system.cpu1.power_state.ticksClkGated::min_value        40001                       # Distribution of time spent in the clock gated state (Tick)
system.cpu1.power_state.ticksClkGated::max_value  40000691000                       # Distribution of time spent in the clock gated state (Tick)
system.cpu1.power_state.ticksClkGated::total         6593                       # Distribution of time spent in the clock gated state (Tick)
system.cpu1.power_state.pwrStateResidencyTicks::ON 1558833893034                       # Cumulative time (in ticks) in various power states (Tick)
system.cpu1.power_state.pwrStateResidencyTicks::CLK_GATED 4869035260467                       # Cumulative time (in ticks) in various power states (Tick)
system.cpu1.thread_0.numInsts                       0                       # Number of Instructions committed (Count)
system.cpu1.thread_0.numOps                         0                       # Number of Ops committed (Count)
system.cpu1.thread_0.numMemRefs                     0                       # Number of Memory References (Count)
system.cpu10.numCycles                    12854846901                       # Number of cpu cycles simulated (Cycle)
system.cpu10.numWorkItemsStarted                    0                       # Number of work items this cpu started (Count)
system.cpu10.numWorkItemsCompleted                  0                       # Number of work items this cpu completed (Count)
system.cpu10.exec_context.thread_0.numInsts     58383186                       # Number of instructions committed (Count)
system.cpu10.exec_context.thread_0.numOps    127242166                       # Number of ops (including micro ops) committed (Count)
system.cpu10.exec_context.thread_0.numIntAluAccesses    121503744                       # Number of integer alu accesses (Count)
system.cpu10.exec_context.thread_0.numFpAluAccesses      2079270                       # Number of float alu accesses (Count)
system.cpu10.exec_context.thread_0.numVecAluAccesses            0                       # Number of vector alu accesses (Count)
system.cpu10.exec_context.thread_0.numCallsReturns      2900333                       # Number of times a function call or return occured (Count)
system.cpu10.exec_context.thread_0.numCondCtrlInsts     10454725                       # Number of instructions that are conditional controls (Count)
system.cpu10.exec_context.thread_0.numIntInsts    121503744                       # Number of integer instructions (Count)
system.cpu10.exec_context.thread_0.numFpInsts      2079270                       # Number of float instructions (Count)
system.cpu10.exec_context.thread_0.numVecInsts            0                       # Number of vector instructions (Count)
system.cpu10.exec_context.thread_0.numIntRegReads    161131443                       # Number of times the integer registers were read (Count)
system.cpu10.exec_context.thread_0.numIntRegWrites     90238659                       # Number of times the integer registers were written (Count)
system.cpu10.exec_context.thread_0.numFpRegReads      3398680                       # Number of times the floating registers were read (Count)
system.cpu10.exec_context.thread_0.numFpRegWrites      1700115                       # Number of times the floating registers were written (Count)
system.cpu10.exec_context.thread_0.numVecRegReads            0                       # Number of times the vector registers were read (Count)
system.cpu10.exec_context.thread_0.numVecRegWrites            0                       # Number of times the vector registers were written (Count)
system.cpu10.exec_context.thread_0.numVecPredRegReads            0                       # Number of times the predicate registers were read (Count)
system.cpu10.exec_context.thread_0.numVecPredRegWrites            0                       # Number of times the predicate registers were written (Count)
system.cpu10.exec_context.thread_0.numCCRegReads     75177712                       # Number of times the CC registers were read (Count)
system.cpu10.exec_context.thread_0.numCCRegWrites     36832401                       # Number of times the CC registers were written (Count)
system.cpu10.exec_context.thread_0.numMiscRegReads     53912253                       # Number of times the Misc registers were read (Count)
system.cpu10.exec_context.thread_0.numMiscRegWrites       455339                       # Number of times the Misc registers were written (Count)
system.cpu10.exec_context.thread_0.numMemRefs     27611495                       # Number of memory refs (Count)
system.cpu10.exec_context.thread_0.numLoadInsts     17282115                       # Number of load instructions (Count)
system.cpu10.exec_context.thread_0.numStoreInsts     10329380                       # Number of store instructions (Count)
system.cpu10.exec_context.thread_0.numIdleCycles 12565197173.459452                       # Number of idle cycles (Cycle)
system.cpu10.exec_context.thread_0.numBusyCycles 289649727.540548                       # Number of busy cycles (Cycle)
system.cpu10.exec_context.thread_0.notIdleFraction     0.022532                       # Percentage of non-idle cycles (Ratio)
system.cpu10.exec_context.thread_0.idleFraction     0.977468                       # Percentage of idle cycles (Ratio)
system.cpu10.exec_context.thread_0.numBranches     14897775                       # Number of branches fetched (Count)
system.cpu10.exec_context.thread_0.statExecutedInstType::No_OpClass       332742      0.26%      0.26% # Class of executed instruction. (Count)
system.cpu10.exec_context.thread_0.statExecutedInstType::IntAlu     97326889     76.49%     76.75% # Class of executed instruction. (Count)
system.cpu10.exec_context.thread_0.statExecutedInstType::IntMult       178100      0.14%     76.89% # Class of executed instruction. (Count)
system.cpu10.exec_context.thread_0.statExecutedInstType::IntDiv       359493      0.28%     77.17% # Class of executed instruction. (Count)
system.cpu10.exec_context.thread_0.statExecutedInstType::FloatAdd        39612      0.03%     77.20% # Class of executed instruction. (Count)
system.cpu10.exec_context.thread_0.statExecutedInstType::FloatCmp            0      0.00%     77.20% # Class of executed instruction. (Count)
system.cpu10.exec_context.thread_0.statExecutedInstType::FloatCvt         4032      0.00%     77.21% # Class of executed instruction. (Count)
system.cpu10.exec_context.thread_0.statExecutedInstType::FloatMult            0      0.00%     77.21% # Class of executed instruction. (Count)
system.cpu10.exec_context.thread_0.statExecutedInstType::FloatMultAcc            0      0.00%     77.21% # Class of executed instruction. (Count)
system.cpu10.exec_context.thread_0.statExecutedInstType::FloatDiv            0      0.00%     77.21% # Class of executed instruction. (Count)
system.cpu10.exec_context.thread_0.statExecutedInstType::FloatMisc            0      0.00%     77.21% # Class of executed instruction. (Count)
system.cpu10.exec_context.thread_0.statExecutedInstType::FloatSqrt            0      0.00%     77.21% # Class of executed instruction. (Count)
system.cpu10.exec_context.thread_0.statExecutedInstType::SimdAdd       122976      0.10%     77.30% # Class of executed instruction. (Count)
system.cpu10.exec_context.thread_0.statExecutedInstType::SimdAddAcc            0      0.00%     77.30% # Class of executed instruction. (Count)
system.cpu10.exec_context.thread_0.statExecutedInstType::SimdAlu       389350      0.31%     77.61% # Class of executed instruction. (Count)
system.cpu10.exec_context.thread_0.statExecutedInstType::SimdCmp        11220      0.01%     77.62% # Class of executed instruction. (Count)
system.cpu10.exec_context.thread_0.statExecutedInstType::SimdCvt       419844      0.33%     77.95% # Class of executed instruction. (Count)
system.cpu10.exec_context.thread_0.statExecutedInstType::SimdMisc       372251      0.29%     78.24% # Class of executed instruction. (Count)
system.cpu10.exec_context.thread_0.statExecutedInstType::SimdMult            0      0.00%     78.24% # Class of executed instruction. (Count)
system.cpu10.exec_context.thread_0.statExecutedInstType::SimdMultAcc            0      0.00%     78.24% # Class of executed instruction. (Count)
system.cpu10.exec_context.thread_0.statExecutedInstType::SimdShift        76185      0.06%     78.30% # Class of executed instruction. (Count)
system.cpu10.exec_context.thread_0.statExecutedInstType::SimdShiftAcc            0      0.00%     78.30% # Class of executed instruction. (Count)
system.cpu10.exec_context.thread_0.statExecutedInstType::SimdDiv            0      0.00%     78.30% # Class of executed instruction. (Count)
system.cpu10.exec_context.thread_0.statExecutedInstType::SimdSqrt            0      0.00%     78.30% # Class of executed instruction. (Count)
system.cpu10.exec_context.thread_0.statExecutedInstType::SimdFloatAdd            0      0.00%     78.30% # Class of executed instruction. (Count)
system.cpu10.exec_context.thread_0.statExecutedInstType::SimdFloatAlu            0      0.00%     78.30% # Class of executed instruction. (Count)
system.cpu10.exec_context.thread_0.statExecutedInstType::SimdFloatCmp            0      0.00%     78.30% # Class of executed instruction. (Count)
system.cpu10.exec_context.thread_0.statExecutedInstType::SimdFloatCvt            0      0.00%     78.30% # Class of executed instruction. (Count)
system.cpu10.exec_context.thread_0.statExecutedInstType::SimdFloatDiv            0      0.00%     78.30% # Class of executed instruction. (Count)
system.cpu10.exec_context.thread_0.statExecutedInstType::SimdFloatMisc            0      0.00%     78.30% # Class of executed instruction. (Count)
system.cpu10.exec_context.thread_0.statExecutedInstType::SimdFloatMult            0      0.00%     78.30% # Class of executed instruction. (Count)
system.cpu10.exec_context.thread_0.statExecutedInstType::SimdFloatMultAcc            0      0.00%     78.30% # Class of executed instruction. (Count)
system.cpu10.exec_context.thread_0.statExecutedInstType::SimdFloatSqrt            0      0.00%     78.30% # Class of executed instruction. (Count)
system.cpu10.exec_context.thread_0.statExecutedInstType::SimdReduceAdd            0      0.00%     78.30% # Class of executed instruction. (Count)
system.cpu10.exec_context.thread_0.statExecutedInstType::SimdReduceAlu            0      0.00%     78.30% # Class of executed instruction. (Count)
system.cpu10.exec_context.thread_0.statExecutedInstType::SimdReduceCmp            0      0.00%     78.30% # Class of executed instruction. (Count)
system.cpu10.exec_context.thread_0.statExecutedInstType::SimdFloatReduceAdd            0      0.00%     78.30% # Class of executed instruction. (Count)
system.cpu10.exec_context.thread_0.statExecutedInstType::SimdFloatReduceCmp            0      0.00%     78.30% # Class of executed instruction. (Count)
system.cpu10.exec_context.thread_0.statExecutedInstType::SimdAes            0      0.00%     78.30% # Class of executed instruction. (Count)
system.cpu10.exec_context.thread_0.statExecutedInstType::SimdAesMix            0      0.00%     78.30% # Class of executed instruction. (Count)
system.cpu10.exec_context.thread_0.statExecutedInstType::SimdSha1Hash            0      0.00%     78.30% # Class of executed instruction. (Count)
system.cpu10.exec_context.thread_0.statExecutedInstType::SimdSha1Hash2            0      0.00%     78.30% # Class of executed instruction. (Count)
system.cpu10.exec_context.thread_0.statExecutedInstType::SimdSha256Hash            0      0.00%     78.30% # Class of executed instruction. (Count)
system.cpu10.exec_context.thread_0.statExecutedInstType::SimdSha256Hash2            0      0.00%     78.30% # Class of executed instruction. (Count)
system.cpu10.exec_context.thread_0.statExecutedInstType::SimdShaSigma2            0      0.00%     78.30% # Class of executed instruction. (Count)
system.cpu10.exec_context.thread_0.statExecutedInstType::SimdShaSigma3            0      0.00%     78.30% # Class of executed instruction. (Count)
system.cpu10.exec_context.thread_0.statExecutedInstType::SimdPredAlu            0      0.00%     78.30% # Class of executed instruction. (Count)
system.cpu10.exec_context.thread_0.statExecutedInstType::MemRead     16845665     13.24%     91.54% # Class of executed instruction. (Count)
system.cpu10.exec_context.thread_0.statExecutedInstType::MemWrite     10204247      8.02%     99.56% # Class of executed instruction. (Count)
system.cpu10.exec_context.thread_0.statExecutedInstType::FloatMemRead       436450      0.34%     99.90% # Class of executed instruction. (Count)
system.cpu10.exec_context.thread_0.statExecutedInstType::FloatMemWrite       125133      0.10%    100.00% # Class of executed instruction. (Count)
system.cpu10.exec_context.thread_0.statExecutedInstType::IprAccess            0      0.00%    100.00% # Class of executed instruction. (Count)
system.cpu10.exec_context.thread_0.statExecutedInstType::InstPrefetch            0      0.00%    100.00% # Class of executed instruction. (Count)
system.cpu10.exec_context.thread_0.statExecutedInstType::total    127244189                       # Class of executed instruction. (Count)
system.cpu10.interrupts.clk_domain.clock         8000                       # Clock period in ticks (Tick)
system.cpu10.mmu.dtb.rdAccesses              17523004                       # TLB accesses on read requests (Count)
system.cpu10.mmu.dtb.wrAccesses              10349573                       # TLB accesses on write requests (Count)
system.cpu10.mmu.dtb.rdMisses                  231779                       # TLB misses on read requests (Count)
system.cpu10.mmu.dtb.wrMisses                   20147                       # TLB misses on write requests (Count)
system.cpu10.mmu.dtb.walker.power_state.pwrStateResidencyTicks::UNDEFINED 6427869153501                       # Cumulative time (in ticks) in various power states (Tick)
system.cpu10.mmu.itb.rdAccesses                     0                       # TLB accesses on read requests (Count)
system.cpu10.mmu.itb.wrAccesses              76822547                       # TLB accesses on write requests (Count)
system.cpu10.mmu.itb.rdMisses                       0                       # TLB misses on read requests (Count)
system.cpu10.mmu.itb.wrMisses                   80611                       # TLB misses on write requests (Count)
system.cpu10.mmu.itb.walker.power_state.pwrStateResidencyTicks::UNDEFINED 6427869153501                       # Cumulative time (in ticks) in various power states (Tick)
system.cpu10.power_state.numTransitions          9884                       # Number of power state transitions (Count)
system.cpu10.power_state.ticksClkGated::samples         4943                       # Distribution of time spent in the clock gated state (Tick)
system.cpu10.power_state.ticksClkGated::mean 959415639.186931                       # Distribution of time spent in the clock gated state (Tick)
system.cpu10.power_state.ticksClkGated::stdev 585570404.137066                       # Distribution of time spent in the clock gated state (Tick)
system.cpu10.power_state.ticksClkGated::1000-5e+10         4943    100.00%    100.00% # Distribution of time spent in the clock gated state (Tick)
system.cpu10.power_state.ticksClkGated::min_value       417500                       # Distribution of time spent in the clock gated state (Tick)
system.cpu10.power_state.ticksClkGated::max_value  40000468000                       # Distribution of time spent in the clock gated state (Tick)
system.cpu10.power_state.ticksClkGated::total         4943                       # Distribution of time spent in the clock gated state (Tick)
system.cpu10.power_state.pwrStateResidencyTicks::ON 1685477649000                       # Cumulative time (in ticks) in various power states (Tick)
system.cpu10.power_state.pwrStateResidencyTicks::CLK_GATED 4742391504501                       # Cumulative time (in ticks) in various power states (Tick)
system.cpu10.thread_0.numInsts                      0                       # Number of Instructions committed (Count)
system.cpu10.thread_0.numOps                        0                       # Number of Ops committed (Count)
system.cpu10.thread_0.numMemRefs                    0                       # Number of Memory References (Count)
system.cpu11.numCycles                    12854394852                       # Number of cpu cycles simulated (Cycle)
system.cpu11.numWorkItemsStarted                    0                       # Number of work items this cpu started (Count)
system.cpu11.numWorkItemsCompleted                  0                       # Number of work items this cpu completed (Count)
system.cpu11.exec_context.thread_0.numInsts     96630996                       # Number of instructions committed (Count)
system.cpu11.exec_context.thread_0.numOps    231023705                       # Number of ops (including micro ops) committed (Count)
system.cpu11.exec_context.thread_0.numIntAluAccesses    215946978                       # Number of integer alu accesses (Count)
system.cpu11.exec_context.thread_0.numFpAluAccesses      4428383                       # Number of float alu accesses (Count)
system.cpu11.exec_context.thread_0.numVecAluAccesses            0                       # Number of vector alu accesses (Count)
system.cpu11.exec_context.thread_0.numCallsReturns      4823185                       # Number of times a function call or return occured (Count)
system.cpu11.exec_context.thread_0.numCondCtrlInsts     22417835                       # Number of instructions that are conditional controls (Count)
system.cpu11.exec_context.thread_0.numIntInsts    215946978                       # Number of integer instructions (Count)
system.cpu11.exec_context.thread_0.numFpInsts      4428383                       # Number of float instructions (Count)
system.cpu11.exec_context.thread_0.numVecInsts            0                       # Number of vector instructions (Count)
system.cpu11.exec_context.thread_0.numIntRegReads    297966241                       # Number of times the integer registers were read (Count)
system.cpu11.exec_context.thread_0.numIntRegWrites    159062066                       # Number of times the integer registers were written (Count)
system.cpu11.exec_context.thread_0.numFpRegReads      7200064                       # Number of times the floating registers were read (Count)
system.cpu11.exec_context.thread_0.numFpRegWrites      3612789                       # Number of times the floating registers were written (Count)
system.cpu11.exec_context.thread_0.numVecRegReads            0                       # Number of times the vector registers were read (Count)
system.cpu11.exec_context.thread_0.numVecRegWrites            0                       # Number of times the vector registers were written (Count)
system.cpu11.exec_context.thread_0.numVecPredRegReads            0                       # Number of times the predicate registers were read (Count)
system.cpu11.exec_context.thread_0.numVecPredRegWrites            0                       # Number of times the predicate registers were written (Count)
system.cpu11.exec_context.thread_0.numCCRegReads    152894853                       # Number of times the CC registers were read (Count)
system.cpu11.exec_context.thread_0.numCCRegWrites     67630100                       # Number of times the CC registers were written (Count)
system.cpu11.exec_context.thread_0.numMiscRegReads     91100808                       # Number of times the Misc registers were read (Count)
system.cpu11.exec_context.thread_0.numMiscRegWrites       750268                       # Number of times the Misc registers were written (Count)
system.cpu11.exec_context.thread_0.numMemRefs     49267130                       # Number of memory refs (Count)
system.cpu11.exec_context.thread_0.numLoadInsts     26732847                       # Number of load instructions (Count)
system.cpu11.exec_context.thread_0.numStoreInsts     22534283                       # Number of store instructions (Count)
system.cpu11.exec_context.thread_0.numIdleCycles 12390707439.493660                       # Number of idle cycles (Cycle)
system.cpu11.exec_context.thread_0.numBusyCycles 463687412.506340                       # Number of busy cycles (Cycle)
system.cpu11.exec_context.thread_0.notIdleFraction     0.036072                       # Percentage of non-idle cycles (Ratio)
system.cpu11.exec_context.thread_0.idleFraction     0.963928                       # Percentage of idle cycles (Ratio)
system.cpu11.exec_context.thread_0.numBranches     29601194                       # Number of branches fetched (Count)
system.cpu11.exec_context.thread_0.statExecutedInstType::No_OpClass       648017      0.28%      0.28% # Class of executed instruction. (Count)
system.cpu11.exec_context.thread_0.statExecutedInstType::IntAlu    177080207     76.65%     76.93% # Class of executed instruction. (Count)
system.cpu11.exec_context.thread_0.statExecutedInstType::IntMult       476518      0.21%     77.14% # Class of executed instruction. (Count)
system.cpu11.exec_context.thread_0.statExecutedInstType::IntDiv       388781      0.17%     77.30% # Class of executed instruction. (Count)
system.cpu11.exec_context.thread_0.statExecutedInstType::FloatAdd        65762      0.03%     77.33% # Class of executed instruction. (Count)
system.cpu11.exec_context.thread_0.statExecutedInstType::FloatCmp            0      0.00%     77.33% # Class of executed instruction. (Count)
system.cpu11.exec_context.thread_0.statExecutedInstType::FloatCvt         5824      0.00%     77.33% # Class of executed instruction. (Count)
system.cpu11.exec_context.thread_0.statExecutedInstType::FloatMult            0      0.00%     77.33% # Class of executed instruction. (Count)
system.cpu11.exec_context.thread_0.statExecutedInstType::FloatMultAcc            0      0.00%     77.33% # Class of executed instruction. (Count)
system.cpu11.exec_context.thread_0.statExecutedInstType::FloatDiv            0      0.00%     77.33% # Class of executed instruction. (Count)
system.cpu11.exec_context.thread_0.statExecutedInstType::FloatMisc            0      0.00%     77.33% # Class of executed instruction. (Count)
system.cpu11.exec_context.thread_0.statExecutedInstType::FloatSqrt            0      0.00%     77.33% # Class of executed instruction. (Count)
system.cpu11.exec_context.thread_0.statExecutedInstType::SimdAdd       179040      0.08%     77.41% # Class of executed instruction. (Count)
system.cpu11.exec_context.thread_0.statExecutedInstType::SimdAddAcc            0      0.00%     77.41% # Class of executed instruction. (Count)
system.cpu11.exec_context.thread_0.statExecutedInstType::SimdAlu       995954      0.43%     77.84% # Class of executed instruction. (Count)
system.cpu11.exec_context.thread_0.statExecutedInstType::SimdCmp         3170      0.00%     77.84% # Class of executed instruction. (Count)
system.cpu11.exec_context.thread_0.statExecutedInstType::SimdCvt       876124      0.38%     78.22% # Class of executed instruction. (Count)
system.cpu11.exec_context.thread_0.statExecutedInstType::SimdMisc       946100      0.41%     78.63% # Class of executed instruction. (Count)
system.cpu11.exec_context.thread_0.statExecutedInstType::SimdMult            0      0.00%     78.63% # Class of executed instruction. (Count)
system.cpu11.exec_context.thread_0.statExecutedInstType::SimdMultAcc            0      0.00%     78.63% # Class of executed instruction. (Count)
system.cpu11.exec_context.thread_0.statExecutedInstType::SimdShift        90017      0.04%     78.67% # Class of executed instruction. (Count)
system.cpu11.exec_context.thread_0.statExecutedInstType::SimdShiftAcc            0      0.00%     78.67% # Class of executed instruction. (Count)
system.cpu11.exec_context.thread_0.statExecutedInstType::SimdDiv            0      0.00%     78.67% # Class of executed instruction. (Count)
system.cpu11.exec_context.thread_0.statExecutedInstType::SimdSqrt            0      0.00%     78.67% # Class of executed instruction. (Count)
system.cpu11.exec_context.thread_0.statExecutedInstType::SimdFloatAdd         1001      0.00%     78.67% # Class of executed instruction. (Count)
system.cpu11.exec_context.thread_0.statExecutedInstType::SimdFloatAlu            0      0.00%     78.67% # Class of executed instruction. (Count)
system.cpu11.exec_context.thread_0.statExecutedInstType::SimdFloatCmp            0      0.00%     78.67% # Class of executed instruction. (Count)
system.cpu11.exec_context.thread_0.statExecutedInstType::SimdFloatCvt         2729      0.00%     78.67% # Class of executed instruction. (Count)
system.cpu11.exec_context.thread_0.statExecutedInstType::SimdFloatDiv          666      0.00%     78.67% # Class of executed instruction. (Count)
system.cpu11.exec_context.thread_0.statExecutedInstType::SimdFloatMisc            0      0.00%     78.67% # Class of executed instruction. (Count)
system.cpu11.exec_context.thread_0.statExecutedInstType::SimdFloatMult          998      0.00%     78.67% # Class of executed instruction. (Count)
system.cpu11.exec_context.thread_0.statExecutedInstType::SimdFloatMultAcc            0      0.00%     78.67% # Class of executed instruction. (Count)
system.cpu11.exec_context.thread_0.statExecutedInstType::SimdFloatSqrt            0      0.00%     78.67% # Class of executed instruction. (Count)
system.cpu11.exec_context.thread_0.statExecutedInstType::SimdReduceAdd            0      0.00%     78.67% # Class of executed instruction. (Count)
system.cpu11.exec_context.thread_0.statExecutedInstType::SimdReduceAlu            0      0.00%     78.67% # Class of executed instruction. (Count)
system.cpu11.exec_context.thread_0.statExecutedInstType::SimdReduceCmp            0      0.00%     78.67% # Class of executed instruction. (Count)
system.cpu11.exec_context.thread_0.statExecutedInstType::SimdFloatReduceAdd            0      0.00%     78.67% # Class of executed instruction. (Count)
system.cpu11.exec_context.thread_0.statExecutedInstType::SimdFloatReduceCmp            0      0.00%     78.67% # Class of executed instruction. (Count)
system.cpu11.exec_context.thread_0.statExecutedInstType::SimdAes            0      0.00%     78.67% # Class of executed instruction. (Count)
system.cpu11.exec_context.thread_0.statExecutedInstType::SimdAesMix            0      0.00%     78.67% # Class of executed instruction. (Count)
system.cpu11.exec_context.thread_0.statExecutedInstType::SimdSha1Hash            0      0.00%     78.67% # Class of executed instruction. (Count)
system.cpu11.exec_context.thread_0.statExecutedInstType::SimdSha1Hash2            0      0.00%     78.67% # Class of executed instruction. (Count)
system.cpu11.exec_context.thread_0.statExecutedInstType::SimdSha256Hash            0      0.00%     78.67% # Class of executed instruction. (Count)
system.cpu11.exec_context.thread_0.statExecutedInstType::SimdSha256Hash2            0      0.00%     78.67% # Class of executed instruction. (Count)
system.cpu11.exec_context.thread_0.statExecutedInstType::SimdShaSigma2            0      0.00%     78.67% # Class of executed instruction. (Count)
system.cpu11.exec_context.thread_0.statExecutedInstType::SimdShaSigma3            0      0.00%     78.67% # Class of executed instruction. (Count)
system.cpu11.exec_context.thread_0.statExecutedInstType::SimdPredAlu            0      0.00%     78.67% # Class of executed instruction. (Count)
system.cpu11.exec_context.thread_0.statExecutedInstType::MemRead     25822464     11.18%     89.85% # Class of executed instruction. (Count)
system.cpu11.exec_context.thread_0.statExecutedInstType::MemWrite     22358602      9.68%     99.53% # Class of executed instruction. (Count)
system.cpu11.exec_context.thread_0.statExecutedInstType::FloatMemRead       910383      0.39%     99.92% # Class of executed instruction. (Count)
system.cpu11.exec_context.thread_0.statExecutedInstType::FloatMemWrite       175681      0.08%    100.00% # Class of executed instruction. (Count)
system.cpu11.exec_context.thread_0.statExecutedInstType::IprAccess            0      0.00%    100.00% # Class of executed instruction. (Count)
system.cpu11.exec_context.thread_0.statExecutedInstType::InstPrefetch            0      0.00%    100.00% # Class of executed instruction. (Count)
system.cpu11.exec_context.thread_0.statExecutedInstType::total    231028038                       # Class of executed instruction. (Count)
system.cpu11.interrupts.clk_domain.clock         8000                       # Clock period in ticks (Tick)
system.cpu11.mmu.dtb.rdAccesses              27213428                       # TLB accesses on read requests (Count)
system.cpu11.mmu.dtb.wrAccesses              22573024                       # TLB accesses on write requests (Count)
system.cpu11.mmu.dtb.rdMisses                  462505                       # TLB misses on read requests (Count)
system.cpu11.mmu.dtb.wrMisses                   37669                       # TLB misses on write requests (Count)
system.cpu11.mmu.dtb.walker.power_state.pwrStateResidencyTicks::UNDEFINED 6427869153501                       # Cumulative time (in ticks) in various power states (Tick)
system.cpu11.mmu.itb.rdAccesses                     0                       # TLB accesses on read requests (Count)
system.cpu11.mmu.itb.wrAccesses             126287799                       # TLB accesses on write requests (Count)
system.cpu11.mmu.itb.rdMisses                       0                       # TLB misses on read requests (Count)
system.cpu11.mmu.itb.wrMisses                  175427                       # TLB misses on write requests (Count)
system.cpu11.mmu.itb.walker.power_state.pwrStateResidencyTicks::UNDEFINED 6427869153501                       # Cumulative time (in ticks) in various power states (Tick)
system.cpu11.power_state.numTransitions          9906                       # Number of power state transitions (Count)
system.cpu11.power_state.ticksClkGated::samples         4954                       # Distribution of time spent in the clock gated state (Tick)
system.cpu11.power_state.ticksClkGated::mean 930682144.933589                       # Distribution of time spent in the clock gated state (Tick)
system.cpu11.power_state.ticksClkGated::stdev 604548122.829839                       # Distribution of time spent in the clock gated state (Tick)
system.cpu11.power_state.ticksClkGated::1000-5e+10         4954    100.00%    100.00% # Distribution of time spent in the clock gated state (Tick)
system.cpu11.power_state.ticksClkGated::min_value       744000                       # Distribution of time spent in the clock gated state (Tick)
system.cpu11.power_state.ticksClkGated::max_value  40000465000                       # Distribution of time spent in the clock gated state (Tick)
system.cpu11.power_state.ticksClkGated::total         4954                       # Distribution of time spent in the clock gated state (Tick)
system.cpu11.power_state.pwrStateResidencyTicks::ON 1817269807500                       # Cumulative time (in ticks) in various power states (Tick)
system.cpu11.power_state.pwrStateResidencyTicks::CLK_GATED 4610599346001                       # Cumulative time (in ticks) in various power states (Tick)
system.cpu11.thread_0.numInsts                      0                       # Number of Instructions committed (Count)
system.cpu11.thread_0.numOps                        0                       # Number of Ops committed (Count)
system.cpu11.thread_0.numMemRefs                    0                       # Number of Memory References (Count)
system.cpu12.numCycles                    12853917698                       # Number of cpu cycles simulated (Cycle)
system.cpu12.numWorkItemsStarted                    0                       # Number of work items this cpu started (Count)
system.cpu12.numWorkItemsCompleted                  0                       # Number of work items this cpu completed (Count)
system.cpu12.exec_context.thread_0.numInsts    351646315                       # Number of instructions committed (Count)
system.cpu12.exec_context.thread_0.numOps    690915500                       # Number of ops (including micro ops) committed (Count)
system.cpu12.exec_context.thread_0.numIntAluAccesses    680422256                       # Number of integer alu accesses (Count)
system.cpu12.exec_context.thread_0.numFpAluAccesses      9764757                       # Number of float alu accesses (Count)
system.cpu12.exec_context.thread_0.numVecAluAccesses            0                       # Number of vector alu accesses (Count)
system.cpu12.exec_context.thread_0.numCallsReturns     10944045                       # Number of times a function call or return occured (Count)
system.cpu12.exec_context.thread_0.numCondCtrlInsts     63295637                       # Number of instructions that are conditional controls (Count)
system.cpu12.exec_context.thread_0.numIntInsts    680422256                       # Number of integer instructions (Count)
system.cpu12.exec_context.thread_0.numFpInsts      9764757                       # Number of float instructions (Count)
system.cpu12.exec_context.thread_0.numVecInsts            0                       # Number of vector instructions (Count)
system.cpu12.exec_context.thread_0.numIntRegReads    867824306                       # Number of times the integer registers were read (Count)
system.cpu12.exec_context.thread_0.numIntRegWrites    488416670                       # Number of times the integer registers were written (Count)
system.cpu12.exec_context.thread_0.numFpRegReads     11348192                       # Number of times the floating registers were read (Count)
system.cpu12.exec_context.thread_0.numFpRegWrites      5944449                       # Number of times the floating registers were written (Count)
system.cpu12.exec_context.thread_0.numVecRegReads            0                       # Number of times the vector registers were read (Count)
system.cpu12.exec_context.thread_0.numVecRegWrites            0                       # Number of times the vector registers were written (Count)
system.cpu12.exec_context.thread_0.numVecPredRegReads            0                       # Number of times the predicate registers were read (Count)
system.cpu12.exec_context.thread_0.numVecPredRegWrites            0                       # Number of times the predicate registers were written (Count)
system.cpu12.exec_context.thread_0.numCCRegReads    385337870                       # Number of times the CC registers were read (Count)
system.cpu12.exec_context.thread_0.numCCRegWrites    211702200                       # Number of times the CC registers were written (Count)
system.cpu12.exec_context.thread_0.numMiscRegReads    312292349                       # Number of times the Misc registers were read (Count)
system.cpu12.exec_context.thread_0.numMiscRegWrites       621776                       # Number of times the Misc registers were written (Count)
system.cpu12.exec_context.thread_0.numMemRefs    157774697                       # Number of memory refs (Count)
system.cpu12.exec_context.thread_0.numLoadInsts     99122024                       # Number of load instructions (Count)
system.cpu12.exec_context.thread_0.numStoreInsts     58652673                       # Number of store instructions (Count)
system.cpu12.exec_context.thread_0.numIdleCycles 11140124008.085169                       # Number of idle cycles (Cycle)
system.cpu12.exec_context.thread_0.numBusyCycles 1713793689.914830                       # Number of busy cycles (Cycle)
system.cpu12.exec_context.thread_0.notIdleFraction     0.133329                       # Percentage of non-idle cycles (Ratio)
system.cpu12.exec_context.thread_0.idleFraction     0.866671                       # Percentage of idle cycles (Ratio)
system.cpu12.exec_context.thread_0.numBranches     79486333                       # Number of branches fetched (Count)
system.cpu12.exec_context.thread_0.statExecutedInstType::No_OpClass       790401      0.11%      0.11% # Class of executed instruction. (Count)
system.cpu12.exec_context.thread_0.statExecutedInstType::IntAlu    527345998     76.31%     76.42% # Class of executed instruction. (Count)
system.cpu12.exec_context.thread_0.statExecutedInstType::IntMult       545249      0.08%     76.50% # Class of executed instruction. (Count)
system.cpu12.exec_context.thread_0.statExecutedInstType::IntDiv       516244      0.07%     76.57% # Class of executed instruction. (Count)
system.cpu12.exec_context.thread_0.statExecutedInstType::FloatAdd       525885      0.08%     76.65% # Class of executed instruction. (Count)
system.cpu12.exec_context.thread_0.statExecutedInstType::FloatCmp            0      0.00%     76.65% # Class of executed instruction. (Count)
system.cpu12.exec_context.thread_0.statExecutedInstType::FloatCvt         9056      0.00%     76.65% # Class of executed instruction. (Count)
system.cpu12.exec_context.thread_0.statExecutedInstType::FloatMult            0      0.00%     76.65% # Class of executed instruction. (Count)
system.cpu12.exec_context.thread_0.statExecutedInstType::FloatMultAcc            0      0.00%     76.65% # Class of executed instruction. (Count)
system.cpu12.exec_context.thread_0.statExecutedInstType::FloatDiv            0      0.00%     76.65% # Class of executed instruction. (Count)
system.cpu12.exec_context.thread_0.statExecutedInstType::FloatMisc            0      0.00%     76.65% # Class of executed instruction. (Count)
system.cpu12.exec_context.thread_0.statExecutedInstType::FloatSqrt            0      0.00%     76.65% # Class of executed instruction. (Count)
system.cpu12.exec_context.thread_0.statExecutedInstType::SimdAdd       119902      0.02%     76.67% # Class of executed instruction. (Count)
system.cpu12.exec_context.thread_0.statExecutedInstType::SimdAddAcc            0      0.00%     76.67% # Class of executed instruction. (Count)
system.cpu12.exec_context.thread_0.statExecutedInstType::SimdAlu      1338329      0.19%     76.86% # Class of executed instruction. (Count)
system.cpu12.exec_context.thread_0.statExecutedInstType::SimdCmp        25430      0.00%     76.87% # Class of executed instruction. (Count)
system.cpu12.exec_context.thread_0.statExecutedInstType::SimdCvt       598096      0.09%     76.95% # Class of executed instruction. (Count)
system.cpu12.exec_context.thread_0.statExecutedInstType::SimdMisc      1433623      0.21%     77.16% # Class of executed instruction. (Count)
system.cpu12.exec_context.thread_0.statExecutedInstType::SimdMult            0      0.00%     77.16% # Class of executed instruction. (Count)
system.cpu12.exec_context.thread_0.statExecutedInstType::SimdMultAcc            0      0.00%     77.16% # Class of executed instruction. (Count)
system.cpu12.exec_context.thread_0.statExecutedInstType::SimdShift        69661      0.01%     77.17% # Class of executed instruction. (Count)
system.cpu12.exec_context.thread_0.statExecutedInstType::SimdShiftAcc            0      0.00%     77.17% # Class of executed instruction. (Count)
system.cpu12.exec_context.thread_0.statExecutedInstType::SimdDiv            0      0.00%     77.17% # Class of executed instruction. (Count)
system.cpu12.exec_context.thread_0.statExecutedInstType::SimdSqrt            0      0.00%     77.17% # Class of executed instruction. (Count)
system.cpu12.exec_context.thread_0.statExecutedInstType::SimdFloatAdd         1659      0.00%     77.17% # Class of executed instruction. (Count)
system.cpu12.exec_context.thread_0.statExecutedInstType::SimdFloatAlu            0      0.00%     77.17% # Class of executed instruction. (Count)
system.cpu12.exec_context.thread_0.statExecutedInstType::SimdFloatCmp            2      0.00%     77.17% # Class of executed instruction. (Count)
system.cpu12.exec_context.thread_0.statExecutedInstType::SimdFloatCvt         4649      0.00%     77.17% # Class of executed instruction. (Count)
system.cpu12.exec_context.thread_0.statExecutedInstType::SimdFloatDiv           13      0.00%     77.17% # Class of executed instruction. (Count)
system.cpu12.exec_context.thread_0.statExecutedInstType::SimdFloatMisc            0      0.00%     77.17% # Class of executed instruction. (Count)
system.cpu12.exec_context.thread_0.statExecutedInstType::SimdFloatMult         1724      0.00%     77.17% # Class of executed instruction. (Count)
system.cpu12.exec_context.thread_0.statExecutedInstType::SimdFloatMultAcc            0      0.00%     77.17% # Class of executed instruction. (Count)
system.cpu12.exec_context.thread_0.statExecutedInstType::SimdFloatSqrt            0      0.00%     77.17% # Class of executed instruction. (Count)
system.cpu12.exec_context.thread_0.statExecutedInstType::SimdReduceAdd            0      0.00%     77.17% # Class of executed instruction. (Count)
system.cpu12.exec_context.thread_0.statExecutedInstType::SimdReduceAlu            0      0.00%     77.17% # Class of executed instruction. (Count)
system.cpu12.exec_context.thread_0.statExecutedInstType::SimdReduceCmp            0      0.00%     77.17% # Class of executed instruction. (Count)
system.cpu12.exec_context.thread_0.statExecutedInstType::SimdFloatReduceAdd            0      0.00%     77.17% # Class of executed instruction. (Count)
system.cpu12.exec_context.thread_0.statExecutedInstType::SimdFloatReduceCmp            0      0.00%     77.17% # Class of executed instruction. (Count)
system.cpu12.exec_context.thread_0.statExecutedInstType::SimdAes            0      0.00%     77.17% # Class of executed instruction. (Count)
system.cpu12.exec_context.thread_0.statExecutedInstType::SimdAesMix            0      0.00%     77.17% # Class of executed instruction. (Count)
system.cpu12.exec_context.thread_0.statExecutedInstType::SimdSha1Hash            0      0.00%     77.17% # Class of executed instruction. (Count)
system.cpu12.exec_context.thread_0.statExecutedInstType::SimdSha1Hash2            0      0.00%     77.17% # Class of executed instruction. (Count)
system.cpu12.exec_context.thread_0.statExecutedInstType::SimdSha256Hash            0      0.00%     77.17% # Class of executed instruction. (Count)
system.cpu12.exec_context.thread_0.statExecutedInstType::SimdSha256Hash2            0      0.00%     77.17% # Class of executed instruction. (Count)
system.cpu12.exec_context.thread_0.statExecutedInstType::SimdShaSigma2            0      0.00%     77.17% # Class of executed instruction. (Count)
system.cpu12.exec_context.thread_0.statExecutedInstType::SimdShaSigma3            0      0.00%     77.17% # Class of executed instruction. (Count)
system.cpu12.exec_context.thread_0.statExecutedInstType::SimdPredAlu            0      0.00%     77.17% # Class of executed instruction. (Count)
system.cpu12.exec_context.thread_0.statExecutedInstType::MemRead     97027928     14.04%     91.21% # Class of executed instruction. (Count)
system.cpu12.exec_context.thread_0.statExecutedInstType::MemWrite     55328974      8.01%     99.22% # Class of executed instruction. (Count)
system.cpu12.exec_context.thread_0.statExecutedInstType::FloatMemRead      2094096      0.30%     99.52% # Class of executed instruction. (Count)
system.cpu12.exec_context.thread_0.statExecutedInstType::FloatMemWrite      3323699      0.48%    100.00% # Class of executed instruction. (Count)
system.cpu12.exec_context.thread_0.statExecutedInstType::IprAccess            0      0.00%    100.00% # Class of executed instruction. (Count)
system.cpu12.exec_context.thread_0.statExecutedInstType::InstPrefetch            0      0.00%    100.00% # Class of executed instruction. (Count)
system.cpu12.exec_context.thread_0.statExecutedInstType::total    691100618                       # Class of executed instruction. (Count)
system.cpu12.interrupts.clk_domain.clock         8000                       # Clock period in ticks (Tick)
system.cpu12.mmu.dtb.rdAccesses             100758650                       # TLB accesses on read requests (Count)
system.cpu12.mmu.dtb.wrAccesses              58756496                       # TLB accesses on write requests (Count)
system.cpu12.mmu.dtb.rdMisses                 1547444                       # TLB misses on read requests (Count)
system.cpu12.mmu.dtb.wrMisses                   90503                       # TLB misses on write requests (Count)
system.cpu12.mmu.dtb.walker.power_state.pwrStateResidencyTicks::UNDEFINED 6427869153501                       # Cumulative time (in ticks) in various power states (Tick)
system.cpu12.mmu.itb.rdAccesses                     0                       # TLB accesses on read requests (Count)
system.cpu12.mmu.itb.wrAccesses             475679633                       # TLB accesses on write requests (Count)
system.cpu12.mmu.itb.rdMisses                       0                       # TLB misses on read requests (Count)
system.cpu12.mmu.itb.wrMisses                  417595                       # TLB misses on write requests (Count)
system.cpu12.mmu.itb.walker.power_state.pwrStateResidencyTicks::UNDEFINED 6427869153501                       # Cumulative time (in ticks) in various power states (Tick)
system.cpu12.power_state.numTransitions          8630                       # Number of power state transitions (Count)
system.cpu12.power_state.ticksClkGated::samples         4316                       # Distribution of time spent in the clock gated state (Tick)
system.cpu12.power_state.ticksClkGated::mean 913042793.674930                       # Distribution of time spent in the clock gated state (Tick)
system.cpu12.power_state.ticksClkGated::stdev 645908744.627721                       # Distribution of time spent in the clock gated state (Tick)
system.cpu12.power_state.ticksClkGated::1000-5e+10         4316    100.00%    100.00% # Distribution of time spent in the clock gated state (Tick)
system.cpu12.power_state.ticksClkGated::min_value       240000                       # Distribution of time spent in the clock gated state (Tick)
system.cpu12.power_state.ticksClkGated::max_value  40000475000                       # Distribution of time spent in the clock gated state (Tick)
system.cpu12.power_state.ticksClkGated::total         4316                       # Distribution of time spent in the clock gated state (Tick)
system.cpu12.power_state.pwrStateResidencyTicks::ON 2487176456000                       # Cumulative time (in ticks) in various power states (Tick)
system.cpu12.power_state.pwrStateResidencyTicks::CLK_GATED 3940692697501                       # Cumulative time (in ticks) in various power states (Tick)
system.cpu12.thread_0.numInsts                      0                       # Number of Instructions committed (Count)
system.cpu12.thread_0.numOps                        0                       # Number of Ops committed (Count)
system.cpu12.thread_0.numMemRefs                    0                       # Number of Memory References (Count)
system.cpu13.numCycles                    12855504658                       # Number of cpu cycles simulated (Cycle)
system.cpu13.numWorkItemsStarted                    0                       # Number of work items this cpu started (Count)
system.cpu13.numWorkItemsCompleted                  0                       # Number of work items this cpu completed (Count)
system.cpu13.exec_context.thread_0.numInsts    228688513                       # Number of instructions committed (Count)
system.cpu13.exec_context.thread_0.numOps    454519174                       # Number of ops (including micro ops) committed (Count)
system.cpu13.exec_context.thread_0.numIntAluAccesses    443110650                       # Number of integer alu accesses (Count)
system.cpu13.exec_context.thread_0.numFpAluAccesses      7148549                       # Number of float alu accesses (Count)
system.cpu13.exec_context.thread_0.numVecAluAccesses            0                       # Number of vector alu accesses (Count)
system.cpu13.exec_context.thread_0.numCallsReturns      8895953                       # Number of times a function call or return occured (Count)
system.cpu13.exec_context.thread_0.numCondCtrlInsts     36264630                       # Number of instructions that are conditional controls (Count)
system.cpu13.exec_context.thread_0.numIntInsts    443110650                       # Number of integer instructions (Count)
system.cpu13.exec_context.thread_0.numFpInsts      7148549                       # Number of float instructions (Count)
system.cpu13.exec_context.thread_0.numVecInsts            0                       # Number of vector instructions (Count)
system.cpu13.exec_context.thread_0.numIntRegReads    596044456                       # Number of times the integer registers were read (Count)
system.cpu13.exec_context.thread_0.numIntRegWrites    328109110                       # Number of times the integer registers were written (Count)
[...]
system.ruby.network.routers42.throttle40.msg_count.Response_Data::1       827407                       (Unspecified)
system.ruby.network.routers42.throttle40.msg_bytes.Response_Data::1     59573304                       (Unspecified)
system.ruby.network.routers42.throttle40.msg_count.Writeback_Control::1      1595104                       (Unspecified)
system.ruby.network.routers42.throttle40.msg_bytes.Writeback_Control::1     12760832                       (Unspecified)
system.ruby.network.routers42.throttle41.acc_link_utilization            0                       # Accumulated link utilization (Count)
system.ruby.network.routers42.throttle41.link_utilization            0                       # Average link utilization (Ratio)
system.ruby.network.routers42.throttle41.total_msg_count            0                       # Total number of messages forwarded by this switch (Count)
system.ruby.network.routers42.throttle41.total_msg_bytes            0                       # Total number of bytes forwarded by this switch (Byte)
system.ruby.network.routers42.throttle41.total_data_msg_bytes            0                       # Total number of data bytes forwarded by this switch (Byte)
system.ruby.network.routers42.throttle41.total_msg_wait_time            0                       # Total time spend forwarding messages (Tick)
system.ruby.network.routers42.throttle41.total_stall_cy            0                       # Total time spent blocked on any output link (Cycle)
system.ruby.network.routers42.throttle41.total_bw_sat_cy            0                       # Total time bandwidth was saturated on any output link (Cycle)
system.ruby.network.routers42.throttle41.avg_msg_wait_time          nan                       # Average time a message took to be forwarded (Ratio)
system.ruby.network.routers42.throttle41.avg_bandwidth         0.00                       # Average bandwidth (GB/s) (Ratio)
system.ruby.network.routers42.throttle41.avg_useful_bandwidth         0.00                       # Average usefull (only data) bandwidth (GB/s) (Ratio)
system.ruby.network.routers5.percent_links_utilized            0                       (Unspecified)
system.ruby.network.routers5.power_state.pwrStateResidencyTicks::UNDEFINED 514464232543500                       # Cumulative time (in ticks) in various power states (Tick)
system.ruby.network.routers5.throttle00.acc_link_utilization            0                       # Accumulated link utilization (Count)
system.ruby.network.routers5.throttle00.link_utilization            0                       # Average link utilization (Ratio)
system.ruby.network.routers5.throttle00.total_msg_count            0                       # Total number of messages forwarded by this switch (Count)
system.ruby.network.routers5.throttle00.total_msg_bytes            0                       # Total number of bytes forwarded by this switch (Byte)
system.ruby.network.routers5.throttle00.total_data_msg_bytes            0                       # Total number of data bytes forwarded by this switch (Byte)
system.ruby.network.routers5.throttle00.total_msg_wait_time            0                       # Total time spend forwarding messages (Tick)
system.ruby.network.routers5.throttle00.total_stall_cy            0                       # Total time spent blocked on any output link (Cycle)
system.ruby.network.routers5.throttle00.total_bw_sat_cy            0                       # Total time bandwidth was saturated on any output link (Cycle)
system.ruby.network.routers5.throttle00.avg_msg_wait_time          nan                       # Average time a message took to be forwarded (Ratio)
system.ruby.network.routers5.throttle00.avg_bandwidth         0.00                       # Average bandwidth (GB/s) (Ratio)
system.ruby.network.routers5.throttle00.avg_useful_bandwidth         0.00                       # Average usefull (only data) bandwidth (GB/s) (Ratio)
system.ruby.network.routers5.throttle01.acc_link_utilization            0                       # Accumulated link utilization (Count)
system.ruby.network.routers5.throttle01.link_utilization            0                       # Average link utilization (Ratio)
system.ruby.network.routers5.throttle01.total_msg_count            0                       # Total number of messages forwarded by this switch (Count)
system.ruby.network.routers5.throttle01.total_msg_bytes            0                       # Total number of bytes forwarded by this switch (Byte)
system.ruby.network.routers5.throttle01.total_data_msg_bytes            0                       # Total number of data bytes forwarded by this switch (Byte)
system.ruby.network.routers5.throttle01.total_msg_wait_time            0                       # Total time spend forwarding messages (Tick)
system.ruby.network.routers5.throttle01.total_stall_cy            0                       # Total time spent blocked on any output link (Cycle)
system.ruby.network.routers5.throttle01.total_bw_sat_cy            0                       # Total time bandwidth was saturated on any output link (Cycle)
system.ruby.network.routers5.throttle01.avg_msg_wait_time          nan                       # Average time a message took to be forwarded (Ratio)
system.ruby.network.routers5.throttle01.avg_bandwidth         0.00                       # Average bandwidth (GB/s) (Ratio)
system.ruby.network.routers5.throttle01.avg_useful_bandwidth         0.00                       # Average usefull (only data) bandwidth (GB/s) (Ratio)
system.ruby.network.routers6.percent_links_utilized            0                       (Unspecified)
system.ruby.network.routers6.power_state.pwrStateResidencyTicks::UNDEFINED 514464232543500                       # Cumulative time (in ticks) in various power states (Tick)
system.ruby.network.routers6.throttle00.acc_link_utilization            0                       # Accumulated link utilization (Count)
system.ruby.network.routers6.throttle00.link_utilization            0                       # Average link utilization (Ratio)
system.ruby.network.routers6.throttle00.total_msg_count            0                       # Total number of messages forwarded by this switch (Count)
system.ruby.network.routers6.throttle00.total_msg_bytes            0                       # Total number of bytes forwarded by this switch (Byte)
system.ruby.network.routers6.throttle00.total_data_msg_bytes            0                       # Total number of data bytes forwarded by this switch (Byte)
system.ruby.network.routers6.throttle00.total_msg_wait_time            0                       # Total time spend forwarding messages (Tick)
system.ruby.network.routers6.throttle00.total_stall_cy            0                       # Total time spent blocked on any output link (Cycle)
system.ruby.network.routers6.throttle00.total_bw_sat_cy            0                       # Total time bandwidth was saturated on any output link (Cycle)
system.ruby.network.routers6.throttle00.avg_msg_wait_time          nan                       # Average time a message took to be forwarded (Ratio)
system.ruby.network.routers6.throttle00.avg_bandwidth         0.00                       # Average bandwidth (GB/s) (Ratio)
system.ruby.network.routers6.throttle00.avg_useful_bandwidth         0.00                       # Average usefull (only data) bandwidth (GB/s) (Ratio)
system.ruby.network.routers6.throttle01.acc_link_utilization            0                       # Accumulated link utilization (Count)
system.ruby.network.routers6.throttle01.link_utilization            0                       # Average link utilization (Ratio)
system.ruby.network.routers6.throttle01.total_msg_count            0                       # Total number of messages forwarded by this switch (Count)
system.ruby.network.routers6.throttle01.total_msg_bytes            0                       # Total number of bytes forwarded by this switch (Byte)
system.ruby.network.routers6.throttle01.total_data_msg_bytes            0                       # Total number of data bytes forwarded by this switch (Byte)
system.ruby.network.routers6.throttle01.total_msg_wait_time            0                       # Total time spend forwarding messages (Tick)
system.ruby.network.routers6.throttle01.total_stall_cy            0                       # Total time spent blocked on any output link (Cycle)
system.ruby.network.routers6.throttle01.total_bw_sat_cy            0                       # Total time bandwidth was saturated on any output link (Cycle)
system.ruby.network.routers6.throttle01.avg_msg_wait_time          nan                       # Average time a message took to be forwarded (Ratio)
system.ruby.network.routers6.throttle01.avg_bandwidth         0.00                       # Average bandwidth (GB/s) (Ratio)
system.ruby.network.routers6.throttle01.avg_useful_bandwidth         0.00                       # Average usefull (only data) bandwidth (GB/s) (Ratio)
system.ruby.network.routers7.percent_links_utilized            0                       (Unspecified)
system.ruby.network.routers7.power_state.pwrStateResidencyTicks::UNDEFINED 514464232543500                       # Cumulative time (in ticks) in various power states (Tick)
system.ruby.network.routers7.throttle00.acc_link_utilization            0                       # Accumulated link utilization (Count)
system.ruby.network.routers7.throttle00.link_utilization            0                       # Average link utilization (Ratio)
system.ruby.network.routers7.throttle00.total_msg_count            0                       # Total number of messages forwarded by this switch (Count)
system.ruby.network.routers7.throttle00.total_msg_bytes            0                       # Total number of bytes forwarded by this switch (Byte)
system.ruby.network.routers7.throttle00.total_data_msg_bytes            0                       # Total number of data bytes forwarded by this switch (Byte)
system.ruby.network.routers7.throttle00.total_msg_wait_time            0                       # Total time spend forwarding messages (Tick)
system.ruby.network.routers7.throttle00.total_stall_cy            0                       # Total time spent blocked on any output link (Cycle)
system.ruby.network.routers7.throttle00.total_bw_sat_cy            0                       # Total time bandwidth was saturated on any output link (Cycle)
system.ruby.network.routers7.throttle00.avg_msg_wait_time          nan                       # Average time a message took to be forwarded (Ratio)
system.ruby.network.routers7.throttle00.avg_bandwidth         0.00                       # Average bandwidth (GB/s) (Ratio)
system.ruby.network.routers7.throttle00.avg_useful_bandwidth         0.00                       # Average usefull (only data) bandwidth (GB/s) (Ratio)
system.ruby.network.routers7.throttle01.acc_link_utilization            0                       # Accumulated link utilization (Count)
system.ruby.network.routers7.throttle01.link_utilization            0                       # Average link utilization (Ratio)
system.ruby.network.routers7.throttle01.total_msg_count            0                       # Total number of messages forwarded by this switch (Count)
system.ruby.network.routers7.throttle01.total_msg_bytes            0                       # Total number of bytes forwarded by this switch (Byte)
system.ruby.network.routers7.throttle01.total_data_msg_bytes            0                       # Total number of data bytes forwarded by this switch (Byte)
system.ruby.network.routers7.throttle01.total_msg_wait_time            0                       # Total time spend forwarding messages (Tick)
system.ruby.network.routers7.throttle01.total_stall_cy            0                       # Total time spent blocked on any output link (Cycle)
system.ruby.network.routers7.throttle01.total_bw_sat_cy            0                       # Total time bandwidth was saturated on any output link (Cycle)
system.ruby.network.routers7.throttle01.avg_msg_wait_time          nan                       # Average time a message took to be forwarded (Ratio)
system.ruby.network.routers7.throttle01.avg_bandwidth         0.00                       # Average bandwidth (GB/s) (Ratio)
system.ruby.network.routers7.throttle01.avg_useful_bandwidth         0.00                       # Average usefull (only data) bandwidth (GB/s) (Ratio)
system.ruby.network.routers8.percent_links_utilized            0                       (Unspecified)
system.ruby.network.routers8.power_state.pwrStateResidencyTicks::UNDEFINED 514464232543500                       # Cumulative time (in ticks) in various power states (Tick)
system.ruby.network.routers8.throttle00.acc_link_utilization            0                       # Accumulated link utilization (Count)
system.ruby.network.routers8.throttle00.link_utilization            0                       # Average link utilization (Ratio)
system.ruby.network.routers8.throttle00.total_msg_count            0                       # Total number of messages forwarded by this switch (Count)
system.ruby.network.routers8.throttle00.total_msg_bytes            0                       # Total number of bytes forwarded by this switch (Byte)
system.ruby.network.routers8.throttle00.total_data_msg_bytes            0                       # Total number of data bytes forwarded by this switch (Byte)
system.ruby.network.routers8.throttle00.total_msg_wait_time            0                       # Total time spend forwarding messages (Tick)
system.ruby.network.routers8.throttle00.total_stall_cy            0                       # Total time spent blocked on any output link (Cycle)
system.ruby.network.routers8.throttle00.total_bw_sat_cy            0                       # Total time bandwidth was saturated on any output link (Cycle)
system.ruby.network.routers8.throttle00.avg_msg_wait_time          nan                       # Average time a message took to be forwarded (Ratio)
system.ruby.network.routers8.throttle00.avg_bandwidth         0.00                       # Average bandwidth (GB/s) (Ratio)
system.ruby.network.routers8.throttle00.avg_useful_bandwidth         0.00                       # Average usefull (only data) bandwidth (GB/s) (Ratio)
system.ruby.network.routers8.throttle01.acc_link_utilization            0                       # Accumulated link utilization (Count)
system.ruby.network.routers8.throttle01.link_utilization            0                       # Average link utilization (Ratio)
system.ruby.network.routers8.throttle01.total_msg_count            0                       # Total number of messages forwarded by this switch (Count)
system.ruby.network.routers8.throttle01.total_msg_bytes            0                       # Total number of bytes forwarded by this switch (Byte)
system.ruby.network.routers8.throttle01.total_data_msg_bytes            0                       # Total number of data bytes forwarded by this switch (Byte)
system.ruby.network.routers8.throttle01.total_msg_wait_time            0                       # Total time spend forwarding messages (Tick)
system.ruby.network.routers8.throttle01.total_stall_cy            0                       # Total time spent blocked on any output link (Cycle)
system.ruby.network.routers8.throttle01.total_bw_sat_cy            0                       # Total time bandwidth was saturated on any output link (Cycle)
system.ruby.network.routers8.throttle01.avg_msg_wait_time          nan                       # Average time a message took to be forwarded (Ratio)
system.ruby.network.routers8.throttle01.avg_bandwidth         0.00                       # Average bandwidth (GB/s) (Ratio)
system.ruby.network.routers8.throttle01.avg_useful_bandwidth         0.00                       # Average usefull (only data) bandwidth (GB/s) (Ratio)
system.ruby.network.routers9.percent_links_utilized            0                       (Unspecified)
system.ruby.network.routers9.power_state.pwrStateResidencyTicks::UNDEFINED 514464232543500                       # Cumulative time (in ticks) in various power states (Tick)
system.ruby.network.routers9.throttle00.acc_link_utilization            0                       # Accumulated link utilization (Count)
system.ruby.network.routers9.throttle00.link_utilization            0                       # Average link utilization (Ratio)
system.ruby.network.routers9.throttle00.total_msg_count            0                       # Total number of messages forwarded by this switch (Count)
system.ruby.network.routers9.throttle00.total_msg_bytes            0                       # Total number of bytes forwarded by this switch (Byte)
system.ruby.network.routers9.throttle00.total_data_msg_bytes            0                       # Total number of data bytes forwarded by this switch (Byte)
system.ruby.network.routers9.throttle00.total_msg_wait_time            0                       # Total time spend forwarding messages (Tick)
system.ruby.network.routers9.throttle00.total_stall_cy            0                       # Total time spent blocked on any output link (Cycle)
system.ruby.network.routers9.throttle00.total_bw_sat_cy            0                       # Total time bandwidth was saturated on any output link (Cycle)
system.ruby.network.routers9.throttle00.avg_msg_wait_time          nan                       # Average time a message took to be forwarded (Ratio)
system.ruby.network.routers9.throttle00.avg_bandwidth         0.00                       # Average bandwidth (GB/s) (Ratio)
system.ruby.network.routers9.throttle00.avg_useful_bandwidth         0.00                       # Average usefull (only data) bandwidth (GB/s) (Ratio)
system.ruby.network.routers9.throttle01.acc_link_utilization            0                       # Accumulated link utilization (Count)
system.ruby.network.routers9.throttle01.link_utilization            0                       # Average link utilization (Ratio)
system.ruby.network.routers9.throttle01.total_msg_count            0                       # Total number of messages forwarded by this switch (Count)
system.ruby.network.routers9.throttle01.total_msg_bytes            0                       # Total number of bytes forwarded by this switch (Byte)
system.ruby.network.routers9.throttle01.total_data_msg_bytes            0                       # Total number of data bytes forwarded by this switch (Byte)
system.ruby.network.routers9.throttle01.total_msg_wait_time            0                       # Total time spend forwarding messages (Tick)
system.ruby.network.routers9.throttle01.total_stall_cy            0                       # Total time spent blocked on any output link (Cycle)
system.ruby.network.routers9.throttle01.total_bw_sat_cy            0                       # Total time bandwidth was saturated on any output link (Cycle)
system.ruby.network.routers9.throttle01.avg_msg_wait_time          nan                       # Average time a message took to be forwarded (Ratio)
system.ruby.network.routers9.throttle01.avg_bandwidth         0.00                       # Average bandwidth (GB/s) (Ratio)
system.ruby.network.routers9.throttle01.avg_useful_bandwidth         0.00                       # Average usefull (only data) bandwidth (GB/s) (Ratio)
system.ruby.power_state.pwrStateResidencyTicks::UNDEFINED 508036363389999                       # Cumulative time (in ticks) in various power states (Tick)
system.sys_port_proxy.power_state.pwrStateResidencyTicks::UNDEFINED 508036363389999                       # Cumulative time (in ticks) in various power states (Tick)
system.voltage_domain.voltage                       1                       # Voltage in Volts (Volt)
system.workload.inst.arm                            0                       # number of arm instructions executed (Count)
system.workload.inst.quiesce                        0                       # number of quiesce instructions executed (Count)

---------- End Simulation Statistics   ----------
